<?xml version='1.0' encoding='UTF-8'?>
<edges>
  <edge id="25229287" from="Custom35" to="275070445" numLanes="1" width="4.0" shape="-60.592758,-222.088096 -28.689748,-224.024477 8.967850,-226.315947 15.717457,-226.570540 20.463508,-226.618872 20.595261,-226.624561 23.135485,-226.818332 93.560477,-229.172147 "/>
  <edge id="25229293" from="Custom36" to="275070468" numLanes="1" width="4.0" shape="405.284298,83.373390 258.959726,96.315321 "/>
  <edge id="25229297" from="275070477" to="Custom37" numLanes="1" width="4.0" shape="262.454722,173.313072 410.460857,168.277486 410.515094,168.274904 496.228803,163.026124 "/>
  <edge id="25229302" from="275070484" to="Custom38" numLanes="1" width="4.0" shape="255.410107,18.298282 401.660158,13.034881 401.767601,13.028115 421.797881,11.224378 "/>
  <edge id="46378609" from="Custom39" to="275070434" numLanes="1" width="4.0" shape="85.249266,366.596041 156.988954,363.549728 182.749346,362.575197 196.635018,362.051494 196.847201,362.032134 197.056121,361.990312 197.259406,361.926502 199.494212,361.091826 199.680101,361.011453 199.856908,360.912694 200.022822,360.796559 200.176140,360.664242 200.315291,360.517097 200.438848,360.356635 200.545544,360.184500 200.634284,360.002457 200.704160,359.812374 201.412841,357.534477 201.465209,357.327948 201.495309,357.117021 201.502799,356.904088 201.013554,329.918723 200.952565,326.389715 "/>
  <edge id="46378612" from="Custom40" to="592651813" numLanes="1" width="4.0" shape="244.575154,438.486101 241.199211,365.431709 239.467934,327.986971 239.349220,325.437536 "/>
  <edge id="371266084" from="Custom41" to="Custom42" numLanes="1" width="4.0" shape="243.531827,-195.436517 242.128949,-231.435316 242.436058,-232.508183 243.466078,-232.937619 291.667813,-236.669210 "/>
  <edge id="546509204" from="5281436539" to="Custom43" numLanes="1" width="4.0" shape="-110.272217,-220.510826 -118.621672,-217.407092 -118.666883,-217.389659 -126.333812,-214.326252 -129.324361,-213.133303 -129.502791,-213.051768 -129.672375,-212.953144 -129.831480,-212.838380 -129.978577,-212.708581 -130.112250,-212.564995 -130.231212,-212.409004 -130.334320,-212.242109 -130.420580,-212.065915 -130.489165,-211.882117 -130.539412,-211.692485 -130.570839,-211.498842 -130.583144,-211.303051 -130.576208,-211.106997 -128.455582,-186.048700 "/>
  <edge id="564741496" from="5440424833" to="Custom44" numLanes="1" width="4.0" shape="-185.353848,-313.120384 -185.055854,-309.160498 -185.028592,-308.949303 -184.979030,-308.742203 -184.907729,-308.541547 -183.989975,-306.338271 -183.902878,-306.155763 -183.797795,-305.982982 -183.675801,-305.821697 -183.538144,-305.673555 -183.386230,-305.540072 -183.221614,-305.422612 -183.045977,-305.322376 -182.861116,-305.240389 -182.668920,-305.177489 -180.365903,-304.550744 -180.157743,-304.505844 -179.945989,-304.483331 -179.733041,-304.483460 -135.466668,-306.870238 "/>
  <edge id="566092584" from="Custom45" to="Custom46" numLanes="1" width="4.0" shape="34.074245,-324.717599 33.861120,-329.594580 33.866126,-329.680766 33.983481,-331.701055 33.983639,-331.930267 33.170528,-346.269210 "/>
  <edge id="683335886" from="275070420" to="275070421" numLanes="3" width="3.5" shape="-261.547231,-75.509798 -210.056579,-82.386831 -209.943910,-82.403125 -189.855542,-85.530839 "/>
  <edge id="691167146" from="Custom47" to="7636143642" numLanes="3" width="3.5" shape="-485.389090,-50.167549 -466.376414,-52.612299 -441.665072,-55.322436 -441.559632,-55.335622 -430.158489,-56.937604 -374.723497,-63.488384 -313.356943,-70.016366 "/>
  <edge id="-691167146" to="Custom47" from="7636143642" numLanes="1" width="3.5" shape="-313.356943,-70.016366 -374.723497,-63.488384 -430.158489,-56.937604 -441.559632,-55.335622 -441.665072,-55.322436 -466.376414,-52.612299 -485.389090,-50.167549 "/>
  <edge id="691167150" from="275070459" to="Custom48" numLanes="1" width="4.0" shape="300.665243,-137.062861 378.198607,-144.116531 420.875868,-148.000985 498.636729,-155.072700 "/>
  <edge id="746092731" from="3012253374" to="7597542267" numLanes="2" width="3.5" shape="-86.223388,30.009008 -94.373443,-67.407418 -94.744833,-75.028490 -95.115837,-82.596576 "/>
  <edge id="760907920" from="7108818105" to="7595860639" numLanes="1" width="4.0" shape="244.620008,-94.469995 244.428140,-99.855029 244.047959,-110.936382 "/>
  <edge id="813354244" from="7597542284" to="3012253374" numLanes="2" width="3.5" shape="-82.079455,82.455879 -86.222076,30.025126 "/>
  <edge id="813354249" from="7597551588" to="7597542269" numLanes="2" width="3.5" shape="-107.459840,-304.999061 -100.517857,-209.830520 -100.510518,-209.744535 -98.884212,-193.112599 -94.805267,-151.397963 -93.049531,-120.105220 -92.903382,-117.443519 -92.903030,-117.437216 -92.387936,-108.355501 "/>
  <edge id="815628158" from="7595860638" to="7600328555" numLanes="2" width="3.5" shape="32.763035,-101.436331 30.302481,-101.225286 0.395158,-98.642936 0.385028,-98.642047 -70.494243,-92.314442 "/>
  <edge id="821351685" from="275070458" to="275070459" numLanes="1" width="4.0" shape="245.366228,-133.142426 251.438271,-133.581223 298.630865,-136.898830 "/>
  <edge id="821351686" from="Custom49" to="7595860639" numLanes="1" width="3.5" shape="374.055790,-125.900759 313.545080,-120.846232 252.488844,-115.750052 245.898066,-115.198830 "/>
  <edge id="-821351686" to="Custom49" from="7595860639" numLanes="1" width="3.5" shape="245.898066,-115.198830 252.488844,-115.750052 313.545080,-120.846232 374.055790,-125.900759 "/>
  <edge id="821351687" from="275070458" to="7595860639" numLanes="1" width="3.5" shape="241.411463,-129.582717 241.776026,-118.863142 "/>
  <edge id="-821351687" to="275070458" from="7595860639" numLanes="1" width="3.5" shape="241.776026,-118.863142 241.411463,-129.582717 "/>
  <edge id="821351688" from="7600328554" to="7597542284" numLanes="2" width="3.5" shape="-89.994413,-75.509499 -89.731725,-67.775889 -89.728163,-67.697163 -86.900831,-17.682998 -86.787022,-15.668852 -81.325592,80.985191 -81.568421,81.695178 "/>
  <edge id="821351689" from="7597542266" to="7600328554" numLanes="2" width="3.5" shape="-90.668915,-82.949523 -89.982364,-75.314841 "/>
  <edge id="821351690" from="7597542269" to="7597542266" numLanes="2" width="3.5" shape="-91.743271,-97.822022 -91.295839,-91.008963 "/>
  <edge id="821351692" from="7597542268" to="7600328558" numLanes="2" width="3.5" shape="-96.834787,-107.653350 -97.353780,-117.507065 "/>
  <edge id="821351693" from="7597542267" to="7597542268" numLanes="2" width="3.5" shape="-95.632779,-90.683175 -96.150418,-97.247374 "/>
  <edge id="821351694" from="7597542268" to="7597542269" numLanes="3" width="3.5" shape="-95.575149,-97.373558 -92.081891,-97.705294 "/>
  <edge id="821351696" from="7597542266" to="7597542267" numLanes="2" width="3.5" shape="-91.786594,-90.444879 -95.074291,-90.203687 "/>
  <edge id="821351697" from="7600328555" to="7597542266" numLanes="2" width="3.5" shape="-70.500570,-92.313870 -83.875278,-91.095395 "/>
  <edge id="821351698" from="7600328559" to="7597542268" numLanes="3" width="3.5" shape="-114.680486,-95.444777 -103.497270,-96.591310 "/>
  <edge id="821351699" from="275070421" to="7600328559" numLanes="4" width="3.5" shape="-187.768046,-84.063141 -116.286440,-93.494752 "/>
  <edge id="821750922" from="Custom50" to="275070472" numLanes="1" width="4.0" shape="377.344919,-72.207300 248.075328,-66.015532 "/>
  <edge id="821750924" from="7595860639" to="7595860638" numLanes="2" width="3.5" shape="237.659361,-118.053746 137.422213,-110.470860 137.385213,-110.467863 32.761117,-101.436165 "/>
  <edge id="25229278_1" from="Custom51" to="275069375" numLanes="1" width="4.0" shape="-646.793115,318.141319 -515.600421,338.910849 -482.798897,344.177139 -482.607226,344.198494 -476.746527,344.566593 -476.549739,344.569250 -476.353643,344.552554 -471.261764,343.865303 -451.541605,343.398963 -384.603918,341.821406 -376.370651,341.899085 -376.245683,341.896358 -329.028042,339.387947 -311.643747,338.658768 -289.312617,338.486018 -289.290582,338.485726 -246.329783,337.679945 "/>
  <edge id="25229589_1" from="Custom52" to="275070445" numLanes="1" width="4.0" shape="79.453665,-538.374415 78.772851,-529.378877 78.769535,-529.130246 79.491030,-514.377707 82.212982,-458.702076 82.213199,-458.697730 83.683452,-429.908994 83.684681,-429.887258 84.466411,-417.276878 84.720504,-412.744282 89.079263,-335.693905 89.539291,-327.524830 89.539949,-327.513693 91.499174,-295.867831 94.842244,-241.719149 95.247871,-235.173294 "/>
  <edge id="25229589_2" from="275070445" to="275070456" numLanes="1" width="4.0" shape="95.672200,-227.219262 98.709657,-159.322096 98.717903,-159.209312 100.917161,-137.563962 101.651657,-127.416910 "/>
  <edge id="25229288_1" from="275070437" to="275070449" numLanes="1" width="4.0" shape="251.149206,318.349791 255.710029,305.695871 255.767669,305.507277 255.806455,305.313923 255.826011,305.117689 256.302965,295.587569 256.976767,282.124179 258.305969,276.918764 260.608551,273.296291 261.501529,272.627457 "/>
  <edge id="25229288_2" from="275070449" to="Custom53" numLanes="1" width="4.0" shape="267.622674,270.371564 284.948211,269.272770 284.964177,269.271693 380.748734,262.427104 380.760909,262.426197 454.116862,256.734016 454.160617,256.730137 510.036150,251.157454 510.100609,251.149967 518.153301,250.082003 "/>
  <edge id="25229301_1" from="275070449" to="275070477" numLanes="1" width="4.0" shape="265.296561,264.531540 261.272672,186.089188 260.963216,180.115696 260.961580,180.087880 260.647288,175.310328 "/>
  <edge id="25229301_3" from="275070477" to="275070468" numLanes="1" width="4.0" shape="260.209320,167.365325 257.327247,102.567137 "/>
  <edge id="25229301_2" from="275070468" to="275070484" numLanes="1" width="4.0" shape="257.019482,94.596633 256.916717,91.458846 256.915080,91.420257 256.431995,82.147619 255.231212,59.099058 253.515725,20.351066 "/>
  <edge id="25785696_1" from="275069375" to="7636143640" numLanes="1" width="4.0" shape="-240.737686,331.440900 -241.170658,326.669784 -241.771678,312.516556 -242.680866,291.106368 -242.683033,291.065297 -243.217223,282.597881 -245.268125,247.631944 -245.489632,243.292209 -245.490516,243.276156 -246.341743,228.874258 -246.344797,228.822578 -246.346877,228.780288 -246.795513,219.657862 -246.795716,219.653816 -247.963722,196.845559 -249.081201,174.872358 -249.486596,158.499083 -249.495427,158.354458 -249.866296,154.551653 -251.074506,142.254220 -252.752114,125.179150 -254.041987,111.274464 -256.617173,69.511532 -258.226858,31.992008 -258.227328,31.981678 -258.562533,25.010394 -258.565992,24.954682 -259.726920,9.700034 -261.348870,-11.498124 -260.088644,-22.724442 -258.764107,-34.523650 -258.751640,-34.755049 -258.766024,-34.986337 -261.272669,-55.761377 -262.620658,-69.065907 "/>
  <edge id="821351695_1" from="7597542267" to="7636143640" numLanes="2" width="3.5" shape="-103.131669,-89.510956 -115.530336,-88.288262 -134.838917,-86.380086 -134.860419,-86.377894 -169.566178,-82.731536 -184.933772,-81.344870 -215.039892,-80.457178 -226.138289,-80.129938 -226.373941,-80.115021 -261.520182,-76.696756 "/>
  <edge id="25229278_3" from="275070434" to="592651813" numLanes="1" width="4.0" shape="202.929085,324.331501 231.113392,323.677226 233.213269,323.628031 "/>
  <edge id="25229278_4" from="592651813" to="275070437" numLanes="1" width="4.0" shape="241.584088,322.223787 249.875883,319.576922 "/>
  <edge id="61646864_1" from="7597542284" to="275069377" numLanes="3" width="3.5" shape="-84.931156,93.703962 -83.798668,118.154002 -83.797492,118.177649 -81.963934,152.707981 -81.002825,170.704339 -81.001331,170.730476 -74.621493,275.472562 -74.618525,275.516697 -73.385808,292.264216 -71.758131,314.377613 -71.395156,326.500037 "/>
  <edge id="-61646864_1" to="7597542284" from="275069377" numLanes="1" width="3.5" shape="-71.395156,326.500037 -71.758131,314.377613 -73.385808,292.264216 -74.618525,275.516697 -74.621493,275.472562 -81.001331,170.730476 -81.002825,170.704339 -81.963934,152.707981 -83.797492,118.177649 -83.798668,118.154002 -84.931156,93.703962 "/>
  <edge id="61646864_2" from="275069377" to="Custom54" numLanes="3" width="3.5" shape="-71.534766,334.152383 -72.253154,344.952693 -72.250510,345.454091 -70.413504,369.275465 -68.793902,392.437358 -61.395046,498.542162 "/>
  <edge id="-61646864_2" to="275069377" from="Custom54" numLanes="1" width="3.5" shape="-61.395046,498.542162 -68.793902,392.437358 -70.413504,369.275465 -72.250510,345.454091 -72.253154,344.952693 -71.534766,334.152383 "/>
  <edge id="25229278_2" from="275069375" to="275069377" numLanes="1" width="4.0" shape="-238.297905,339.439061 -233.776417,339.328402 -233.716256,339.326023 -214.702753,338.287351 -157.523771,335.163768 -145.557481,334.508109 -145.553339,334.507877 -137.527665,334.051436 -137.490997,334.049013 -85.756105,330.151926 -75.195431,331.477814 "/>
  <edge id="25229278_5" from="275069377" to="275070434" numLanes="1" width="4.0" shape="-60.743853,332.261230 -54.441354,332.142388 -54.428882,332.142113 -45.047574,331.906673 48.699108,329.558235 48.718562,329.557653 50.877035,329.482557 194.954366,324.560282 "/>
  <edge id="85423090_1" from="Custom55" to="5440424833" numLanes="1" width="4.0" shape="-198.052036,-314.668166 -187.223829,-315.108168 "/>
  <edge id="85423090_2" from="5440424833" to="2342987489" numLanes="1" width="4.0" shape="-179.205089,-315.490325 -160.859171,-316.493592 -125.495760,-318.430217 -125.465234,-318.432123 -118.374868,-318.929273 "/>
  <edge id="449519845_1" from="Custom56" to="2342987489" numLanes="3" width="3.5" shape="-200.806984,-1000.056794 -171.682371,-824.729493 -171.681103,-824.721911 -169.658705,-812.710522 -167.957694,-802.531174 -167.055707,-796.964380 -167.054042,-796.954198 -151.368283,-701.921499 -140.190970,-630.683296 -135.448867,-584.272941 -135.438548,-584.183373 -133.574499,-569.652524 -129.700654,-532.907178 -128.259203,-517.941922 -128.255977,-517.909962 -126.897024,-505.040022 -126.892267,-504.997462 -122.033474,-463.814298 -112.310867,-325.368802 "/>
  <edge id="-449519845_1" to="Custom56" from="2342987489" numLanes="1" width="3.5" shape="-112.310867,-325.368802 -122.033474,-463.814298 -126.892267,-504.997462 -126.897024,-505.040022 -128.255977,-517.909962 -128.259203,-517.941922 -129.700654,-532.907178 -133.574499,-569.652524 -135.438548,-584.183373 -135.448867,-584.272941 -140.190970,-630.683296 -151.368283,-701.921499 -167.054042,-796.954198 -167.055707,-796.964380 -167.957694,-802.531174 -169.658705,-812.710522 -171.681103,-824.721911 -171.682371,-824.729493 -200.806984,-1000.056794 "/>
  <edge id="813354245_1" from="7600328558" to="5281436539" numLanes="2" width="3.5" shape="-97.353570,-117.503049 -97.459099,-119.551455 -97.559188,-121.940917 -98.622840,-147.333842 -98.627306,-147.416849 -99.007966,-153.209993 -99.281904,-157.378964 -101.929836,-216.272935 "/>
  <edge id="813354245_2" from="5281436539" to="7597551588" numLanes="2" width="3.5" shape="-102.403330,-224.353524 -108.233844,-305.048442 "/>
  <edge id="760907921_1" from="7597542269" to="275070456" numLanes="3" width="3.5" shape="-84.162404,-98.420712 -71.124324,-99.538237 1.356567,-105.755086 1.481709,-105.767331 100.623299,-116.668313 "/>
  <edge id="760907921_2" from="275070456" to="275070458" numLanes="3" width="3.5" shape="108.488126,-117.461140 203.981374,-126.215623 211.314825,-126.740099 228.732129,-127.985754 229.016847,-128.013933 237.923154,-129.141203 "/>
  <edge id="25229301_4" from="275070484" to="275070472" numLanes="1" width="4.0" shape="253.127717,12.343830 251.398910,-20.496448 251.387336,-20.630375 248.335254,-45.980549 246.638704,-60.093743 "/>
  <edge id="25229301_5" from="275070472" to="7108818105" numLanes="1" width="4.0" shape="245.969915,-67.922840 244.618696,-94.500330 "/>
</edges>
