<?xml version="1.0" encoding="UTF-8"?>

<!-- generated on 08.01.2021 19:00:14 by Netedit Version 0.30.0
<?xml version="1.0" encoding="UTF-8"?>

<configuration xmlns:xsi="http://www.w3.org/2001/XMLSchema-instance" xsi:noNamespaceSchemaLocation="http://sumo.dlr.de/xsd/netconvertConfiguration.xsd">

    <input>
        <sumo-net-file value="world_net/sumo.net.xml"/>
    </input>

    <output>
        <output-file value="world_net/sumo.net.xml"/>
    </output>

    <processing>
        <no-turnarounds value="true"/>
        <offset.disable-normalization value="true"/>
        <lefthand value="false"/>
        <junctions.corner-detail value="0"/>
        <rectangular-lane-cut value="false"/>
    </processing>

</configuration>
-->

<net version="0.27" xmlns:xsi="http://www.w3.org/2001/XMLSchema-instance" xsi:noNamespaceSchemaLocation="http://sumo.dlr.de/xsd/net_file.xsd">

    <location netOffset="646.79,1000.63" convBoundary="0.00,0.00,1164.95,1499.17" origBoundary="-646.79,-1000.63,518.15,498.54" projParameter="!"/>

    <edge id=":2342987489_0" function="internal">
        <lane id=":2342987489_0_0" index="0" speed="13.90" length="3.58" width="3.50" shape="536.81,683.06 533.24,683.25"/>
    </edge>
    <edge id=":2342987489_1" function="internal">
        <lane id=":2342987489_1_0" index="0" speed="13.90" length="3.93" shape="544.02,682.69 540.10,682.69"/>
    </edge>
    <edge id=":2342987489_2" function="internal">
        <lane id=":2342987489_2_0" index="0" speed="13.90" length="5.26" width="3.50" shape="536.83,683.06 536.00,684.46 535.13,684.95 534.20,684.55 533.24,683.25"/>
    </edge>
    <edge id=":2342987489_3" function="internal">
        <lane id=":2342987489_3_0" index="0" speed="13.90" length="6.97" width="3.50" shape="528.28,679.66 530.34,679.76 531.86,680.39 532.82,681.55 533.24,683.25"/>
    </edge>
    <edge id=":2342987489_4" function="internal">
        <lane id=":2342987489_4_0" index="0" speed="13.90" length="13.10" shape="528.28,679.66 533.37,679.54 537.04,680.01 539.28,681.06 540.10,682.69"/>
    </edge>
    <edge id=":275069375_0" function="internal">
        <lane id=":275069375_0_0" index="0" speed="13.90" length="5.92" width="4.00" shape="400.42,1336.26 402.17,1336.43 403.47,1337.01 404.30,1338.00 404.68,1339.40"/>
    </edge>
    <edge id=":275069375_1" function="internal">
        <lane id=":275069375_1_0" index="0" speed="13.90" length="8.29" width="4.00" shape="400.42,1336.26 402.83,1336.52 404.44,1337.15 406.04,1337.78 408.45,1338.02"/>
    </edge>
    <edge id=":275069377_0" function="internal">
        <lane id=":275069377_0_0" index="0" speed="13.90" length="5.11" width="4.00" shape="584.66,1335.41 584.69,1333.42 584.93,1332.00 585.37,1331.14 586.01,1330.84"/>
    </edge>
    <edge id=":275069377_1" function="internal">
        <lane id=":275069377_1_0" index="0" speed="13.90" length="0.40" width="3.50" shape="584.66,1335.41 584.24,1335.38"/>
        <lane id=":275069377_1_1" index="1" speed="13.90" length="0.40" width="3.50" shape="581.05,1335.17 580.65,1335.14"/>
        <lane id=":275069377_1_2" index="2" speed="13.90" length="0.40" width="3.50" shape="577.44,1334.93 577.06,1334.90"/>
    </edge>
    <edge id=":275069377_4" function="internal">
        <lane id=":275069377_4_0" index="0" speed="13.90" length="2.64" width="3.50" shape="577.44,1334.93 576.45,1336.22 575.51,1336.61"/>
    </edge>
    <edge id=":275069377_12" function="internal">
        <lane id=":275069377_12_0" index="0" speed="13.90" length="2.64" width="3.50" shape="575.51,1336.61 574.64,1336.10 573.83,1334.69"/>
    </edge>
    <edge id=":275069377_5" function="internal">
        <lane id=":275069377_5_0" index="0" speed="13.90" length="5.37" width="3.50" shape="571.86,1330.08 572.67,1330.45 573.27,1331.34 573.66,1332.76 573.83,1334.69"/>
    </edge>
    <edge id=":275069377_6" function="internal">
        <lane id=":275069377_6_0" index="0" speed="13.90" length="14.19" width="4.00" shape="571.86,1330.08 575.46,1330.47 578.92,1330.73 582.39,1330.85 586.01,1330.84"/>
    </edge>
    <edge id=":275069377_7" function="internal">
        <lane id=":275069377_7_0" index="0" speed="13.90" length="9.48" width="3.50" shape="571.86,1330.08 575.80,1330.82 578.58,1331.91 580.20,1333.35 580.65,1335.14"/>
        <lane id=":275069377_7_1" index="1" speed="13.90" length="9.48" width="3.50" shape="571.86,1330.08 574.23,1330.64 575.89,1331.63 576.83,1333.05 577.06,1334.90"/>
    </edge>
    <edge id=":275069377_9" function="internal">
        <lane id=":275069377_9_0" index="0" speed="13.90" length="0.37" width="3.50" shape="573.46,1334.66 573.83,1334.69"/>
    </edge>
    <edge id=":275069377_10" function="internal">
        <lane id=":275069377_10_0" index="0" speed="13.90" length="11.00" width="4.00" shape="573.46,1334.66 574.34,1333.08 576.72,1331.91 580.61,1331.17 583.18,1331.01"/>
    </edge>
    <edge id=":275069377_11" function="internal">
        <lane id=":275069377_11_0" index="0" speed="13.90" length="2.63" width="3.50" shape="573.46,1334.66 574.45,1333.37 575.38,1332.98"/>
    </edge>
    <edge id=":275069377_13" function="internal">
        <lane id=":275069377_13_0" index="0" speed="13.90" length="2.83" width="4.00" shape="583.18,1331.01 586.01,1330.84"/>
    </edge>
    <edge id=":275069377_14" function="internal">
        <lane id=":275069377_14_0" index="0" speed="13.90" length="2.63" width="3.50" shape="575.38,1332.98 576.25,1333.49 577.06,1334.90"/>
    </edge>
    <edge id=":275070420_0" function="internal">
        <lane id=":275070420_0_0" index="0" speed="13.90" length="8.87" width="3.50" shape="379.93,927.56 379.84,924.43 380.58,922.09 382.15,920.54 384.53,919.77"/>
        <lane id=":275070420_0_1" index="1" speed="13.90" length="8.87" width="3.50" shape="379.93,927.56 380.06,925.99 380.95,924.77 382.60,923.88 385.01,923.34"/>
    </edge>
    <edge id=":275070420_2" function="internal">
        <lane id=":275070420_2_0" index="0" speed="13.90" length="2.07" width="3.50" shape="384.33,918.25 384.06,916.20"/>
    </edge>
    <edge id=":275070421_0" function="internal">
        <lane id=":275070421_0_0" index="0" speed="13.90" length="2.68" width="3.50" shape="455.55,906.21 457.37,904.08"/>
        <lane id=":275070421_0_1" index="1" speed="13.90" length="2.68" width="3.50" shape="455.55,906.21 457.85,907.65"/>
        <lane id=":275070421_0_2" index="2" speed="13.90" length="2.68" width="3.50" shape="456.11,909.76 458.32,911.22"/>
        <lane id=":275070421_0_3" index="3" speed="13.90" length="2.68" width="3.50" shape="456.66,913.32 458.79,914.79"/>
    </edge>
    <edge id=":275070434_0" function="internal">
        <lane id=":275070434_0_0" index="0" speed="13.90" length="2.09" width="4.00" shape="845.70,1327.05 845.92,1325.28 846.07,1325.02"/>
    </edge>
    <edge id=":275070434_2" function="internal">
        <lane id=":275070434_2_0" index="0" speed="13.90" length="4.44" width="4.00" shape="846.07,1325.02 846.66,1323.99 847.91,1323.20 849.67,1322.91"/>
    </edge>
    <edge id=":275070434_1" function="internal">
        <lane id=":275070434_1_0" index="0" speed="13.90" length="8.00" width="4.00" shape="841.68,1323.14 849.67,1322.91"/>
    </edge>
    <edge id=":275070437_0" function="internal">
        <lane id=":275070437_0_0" index="0" speed="13.90" length="1.83" width="4.00" shape="895.08,1318.57 895.51,1318.38 895.87,1318.11 896.15,1317.76 896.35,1317.34"/>
    </edge>
    <edge id=":275070445_0" function="internal">
        <lane id=":275070445_0_0" index="0" speed="13.90" length="0.10" width="4.00" shape="744.57,773.32 744.52,773.32"/>
    </edge>
    <edge id=":275070445_1" function="internal">
        <lane id=":275070445_1_0" index="0" speed="13.90" length="6.55" width="4.00" shape="740.28,769.41 742.07,769.60 743.37,770.32 744.19,771.56 744.52,773.32"/>
    </edge>
    <edge id=":275070449_0" function="internal">
        <lane id=":275070449_0_0" index="0" speed="13.90" length="4.84" width="4.00" shape="907.06,1271.62 908.47,1270.77 909.49,1270.63 910.14,1271.20 910.41,1272.48"/>
    </edge>
    <edge id=":275070449_1" function="internal">
        <lane id=":275070449_1_0" index="0" speed="13.90" length="7.89" width="4.00" shape="907.06,1271.62 908.95,1270.26 910.39,1269.51 911.97,1269.15 914.29,1268.95"/>
    </edge>
    <edge id=":275070456_0" function="internal">
        <lane id=":275070456_0_0" index="0" speed="13.90" length="10.80" width="3.50" shape="751.24,883.58 751.20,879.61 751.72,876.73 752.81,874.93 754.46,874.21"/>
    </edge>
    <edge id=":275070456_1" function="internal">
        <lane id=":275070456_1_0" index="0" speed="13.90" length="8.00" width="3.50" shape="746.44,875.01 754.46,874.21"/>
        <lane id=":275070456_1_1" index="1" speed="13.90" length="8.00" width="3.50" shape="746.83,878.59 754.79,877.79"/>
        <lane id=":275070456_1_2" index="2" speed="13.90" length="8.00" width="3.50" shape="747.22,882.17 755.12,881.38"/>
    </edge>
    <edge id=":275070458_0" function="internal">
        <lane id=":275070458_0_0" index="0" speed="13.90" length="9.14" width="4.00" shape="886.41,871.28 886.69,868.88 887.71,867.11 889.49,865.97 892.01,865.45"/>
    </edge>
    <edge id=":275070458_1" function="internal">
        <lane id=":275070458_1_0" index="0" speed="13.90" length="5.37" width="3.50" shape="886.41,871.28 886.97,869.72 887.76,869.06 888.76,869.29 889.98,870.41"/>
    </edge>
    <edge id=":275070458_2" function="internal">
        <lane id=":275070458_2_0" index="0" speed="13.90" length="9.15" width="4.00" shape="883.59,862.56 886.14,862.82 887.79,863.91 889.44,865.05 892.01,865.45"/>
    </edge>
    <edge id=":275070458_3" function="internal">
        <lane id=":275070458_3_0" index="0" speed="13.90" length="5.85" width="3.50" shape="884.49,869.70 886.88,869.49 888.58,869.54 889.62,869.84 889.98,870.41"/>
    </edge>
    <edge id=":275070459_0" function="internal">
        <lane id=":275070459_0_0" index="0" speed="13.90" length="2.00" width="4.00" shape="945.28,861.69 947.27,861.53"/>
    </edge>
    <edge id=":275070468_0" function="internal">
        <lane id=":275070468_0_0" index="0" speed="13.90" length="0.10" width="4.00" shape="902.07,1103.29 902.02,1103.29"/>
    </edge>
    <edge id=":275070468_1" function="internal">
        <lane id=":275070468_1_0" index="0" speed="13.90" length="6.55" width="4.00" shape="905.93,1098.99 904.17,1099.40 902.93,1100.25 902.21,1101.55 902.02,1103.29"/>
    </edge>
    <edge id=":275070472_0" function="internal">
        <lane id=":275070472_0_0" index="0" speed="13.90" length="0.28" width="4.00" shape="891.39,940.78 891.12,940.81"/>
    </edge>
    <edge id=":275070472_1" function="internal">
        <lane id=":275070472_1_0" index="0" speed="13.90" length="6.46" width="4.00" shape="894.97,936.66 893.21,936.99 891.98,937.79 891.28,939.07 891.12,940.81"/>
    </edge>
    <edge id=":275070477_0" function="internal">
        <lane id=":275070477_0_0" index="0" speed="13.90" length="0.10" width="4.00" shape="905.39,1176.07 905.31,1176.08"/>
    </edge>
    <edge id=":275070477_1" function="internal">
        <lane id=":275070477_1_0" index="0" speed="13.90" length="6.48" width="4.00" shape="905.39,1176.07 905.53,1174.30 906.21,1173.01 907.42,1172.20 909.18,1171.89"/>
    </edge>
    <edge id=":275070484_0" function="internal">
        <lane id=":275070484_0_0" index="0" speed="13.90" length="0.10" width="4.00" shape="898.26,1021.07 898.29,1021.07"/>
    </edge>
    <edge id=":275070484_1" function="internal">
        <lane id=":275070484_1_0" index="0" speed="13.90" length="6.51" width="4.00" shape="898.26,1021.07 898.44,1019.29 899.14,1018.00 900.37,1017.20 902.13,1016.88"/>
    </edge>
    <edge id=":3012253374_0" function="internal">
        <lane id=":3012253374_0_0" index="0" speed="13.90" length="0.30" width="3.50" shape="555.20,1031.23 555.18,1030.94"/>
        <lane id=":3012253374_0_1" index="1" speed="13.90" length="0.30" width="3.50" shape="558.79,1030.95 558.76,1030.64"/>
    </edge>
    <edge id=":5281436539_0" function="internal">
        <lane id=":5281436539_0_0" index="0" speed="13.90" length="4.13" width="4.00" shape="539.47,784.60 539.27,783.19 538.83,782.29 538.15,781.91 537.23,782.04"/>
    </edge>
    <edge id=":5281436539_1" function="internal">
        <lane id=":5281436539_1_0" index="0" speed="13.90" length="0.11" width="3.50" shape="539.47,784.60 539.58,784.59"/>
        <lane id=":5281436539_1_1" index="1" speed="13.90" length="0.11" width="3.50" shape="543.06,784.44 543.17,784.43"/>
    </edge>
    <edge id=":5440424833_0" function="internal">
        <lane id=":5440424833_0_0" index="0" speed="13.90" length="8.00" width="4.00" shape="459.49,683.47 467.48,683.09"/>
    </edge>
    <edge id=":5440424833_1" function="internal">
        <lane id=":5440424833_1_0" index="0" speed="13.90" length="6.30" width="4.00" shape="459.49,683.47 461.12,683.66 462.33,684.37 463.12,685.60 463.48,687.36"/>
    </edge>
    <edge id=":592651813_0" function="internal">
        <lane id=":592651813_0_0" index="0" speed="13.90" length="2.30" width="4.00" shape="884.09,1326.16 884.25,1324.32 884.43,1323.90"/>
    </edge>
    <edge id=":592651813_2" function="internal">
        <lane id=":592651813_2_0" index="0" speed="13.90" length="4.66" width="4.00" shape="884.43,1323.90 884.91,1322.83 886.08,1321.69 887.75,1320.90"/>
    </edge>
    <edge id=":592651813_1" function="internal">
        <lane id=":592651813_1_0" index="0" speed="13.90" length="7.95" width="4.00" shape="879.96,1322.21 882.32,1322.13 883.93,1321.97 885.50,1321.60 887.75,1320.90"/>
    </edge>
    <edge id=":7108818105_0" function="internal">
        <lane id=":7108818105_0_0" index="0" speed="13.90" length="0.29" width="4.00" shape="889.37,906.38 889.36,906.09"/>
    </edge>
    <edge id=":7595860638_0" function="internal">
        <lane id=":7595860638_0_0" index="0" speed="13.90" length="0.30" width="3.50" shape="680.17,904.56 679.88,904.58"/>
        <lane id=":7595860638_0_1" index="1" speed="13.90" length="0.30" width="3.50" shape="679.86,900.97 679.56,901.00"/>
    </edge>
    <edge id=":7595860639_0" function="internal">
        <lane id=":7595860639_0_0" index="0" speed="13.90" length="4.84" width="3.50" shape="888.79,889.76 888.52,888.87 887.77,888.27 886.55,887.97 884.86,887.96"/>
    </edge>
    <edge id=":7595860639_1" function="internal">
        <lane id=":7595860639_1_0" index="0" speed="13.90" length="1.75" width="3.50" shape="888.79,889.76 887.05,889.82"/>
    </edge>
    <edge id=":7595860639_2" function="internal">
        <lane id=":7595860639_2_0" index="0" speed="13.90" length="2.22" width="3.50" shape="888.79,889.76 888.93,887.55"/>
    </edge>
    <edge id=":7595860639_9" function="internal">
        <lane id=":7595860639_9_0" index="0" speed="13.90" length="5.81" width="3.50" shape="888.93,887.55 888.95,887.20 889.63,885.33 890.83,884.14 892.54,883.64"/>
    </edge>
    <edge id=":7595860639_3" function="internal">
        <lane id=":7595860639_3_0" index="0" speed="13.90" length="8.95" width="3.50" shape="892.84,887.22 890.33,886.89 888.71,885.81 887.10,884.73 884.59,884.37"/>
    </edge>
    <edge id=":7595860639_4" function="internal">
        <lane id=":7595860639_4_0" index="0" speed="13.90" length="6.81" width="3.50" shape="892.84,887.22 890.28,887.57 888.46,888.12 887.38,888.87 887.05,889.82"/>
    </edge>
    <edge id=":7595860639_5" function="internal">
        <lane id=":7595860639_5_0" index="0" speed="13.90" length="5.26" width="3.50" shape="892.84,887.22 891.42,886.44 890.90,885.58 891.27,884.65 892.54,883.64"/>
    </edge>
    <edge id=":7595860639_6" function="internal">
        <lane id=":7595860639_6_0" index="0" speed="13.90" length="6.81" width="3.50" shape="890.64,889.70 890.69,887.11 891.02,885.24 891.63,884.08 892.54,883.64"/>
    </edge>
    <edge id=":7595860639_7" function="internal">
        <lane id=":7595860639_7_0" index="0" speed="13.90" length="9.28" width="3.50" shape="890.64,889.70 890.19,887.20 889.03,885.48 887.16,884.54 884.59,884.37"/>
    </edge>
    <edge id=":7595860639_8" function="internal">
        <lane id=":7595860639_8_0" index="0" speed="13.90" length="2.74" width="3.50" shape="890.64,889.70 889.79,891.08 888.91,891.56 888.80,891.51"/>
    </edge>
    <edge id=":7595860639_10" function="internal">
        <lane id=":7595860639_10_0" index="0" speed="13.90" length="2.51" width="3.50" shape="888.80,891.51 887.99,891.14 887.05,889.82"/>
    </edge>
    <edge id=":7597542266_0" function="internal">
        <lane id=":7597542266_0_0" index="0" speed="13.90" length="3.40" width="3.50" shape="563.41,914.91 562.50,915.12 561.88,915.57 561.55,916.27 561.50,917.19"/>
    </edge>
    <edge id=":7597542266_1" function="internal">
        <lane id=":7597542266_1_0" index="0" speed="13.90" length="8.00" width="3.50" shape="563.41,914.91 555.40,915.58"/>
        <lane id=":7597542266_1_1" index="1" speed="13.90" length="8.00" width="3.50" shape="563.08,911.32 555.14,911.99"/>
    </edge>
    <edge id=":7597542266_3" function="internal">
        <lane id=":7597542266_3_0" index="0" speed="13.90" length="0.10" width="3.50" shape="561.41,917.20 561.50,917.19"/>
        <lane id=":7597542266_3_1" index="1" speed="13.90" length="0.10" width="3.50" shape="557.83,917.53 557.91,917.52"/>
    </edge>
    <edge id=":7597542266_5" function="internal">
        <lane id=":7597542266_5_0" index="0" speed="13.90" length="6.70" width="3.50" shape="557.83,917.53 557.52,915.04 556.97,913.29 556.17,912.27 555.14,911.99"/>
    </edge>
    <edge id=":7597542267_0" function="internal">
        <lane id=":7597542267_0_0" index="0" speed="13.90" length="3.19" width="3.50" shape="546.29,918.29 546.12,917.43 545.71,916.85 545.07,916.53 544.19,916.49"/>
    </edge>
    <edge id=":7597542267_1" function="internal">
        <lane id=":7597542267_1_0" index="0" speed="13.90" length="0.12" width="3.50" shape="546.29,918.29 546.40,918.29"/>
        <lane id=":7597542267_1_1" index="1" speed="13.90" length="0.12" width="3.50" shape="549.88,918.12 550.00,918.11"/>
    </edge>
    <edge id=":7597542267_3" function="internal">
        <lane id=":7597542267_3_0" index="0" speed="13.90" length="8.00" width="3.50" shape="552.11,915.82 544.19,916.49"/>
        <lane id=":7597542267_3_1" index="1" speed="13.90" length="8.00" width="3.50" shape="551.85,912.23 543.84,912.91"/>
    </edge>
    <edge id=":7597542267_5" function="internal">
        <lane id=":7597542267_5_0" index="0" speed="13.90" length="6.72" width="3.50" shape="551.85,912.23 550.87,912.66 550.24,913.78 549.95,915.60 550.00,918.11"/>
    </edge>
    <edge id=":7597542268_0" function="internal">
        <lane id=":7597542268_0_0" index="0" speed="13.90" length="5.30" width="3.50" shape="545.26,903.81 544.57,893.35"/>
        <lane id=":7597542268_0_1" index="1" speed="13.90" length="5.30" width="3.50" shape="548.84,903.49 548.71,903.51"/>
    </edge>
    <edge id=":7597542268_2" function="internal">
        <lane id=":7597542268_2_0" index="0" speed="13.90" length="4.92" width="3.50" shape="548.84,903.49 548.80,901.12 549.10,899.40 549.73,898.32 550.71,897.88"/>
        <lane id=":7597542268_2_1" index="1" speed="13.90" length="4.92" width="3.50" shape="548.84,903.49 548.93,902.69 549.32,902.09 550.03,901.68 551.05,901.47"/>
    </edge>
    <edge id=":7597542268_4" function="internal">
        <lane id=":7597542268_4_0" index="0" speed="13.90" length="3.12" width="3.50" shape="542.38,895.09 543.37,894.89 544.06,894.54 544.46,894.02 544.57,893.35"/>
    </edge>
    <edge id=":7597542268_5" function="internal">
        <lane id=":7597542268_5_0" index="0" speed="13.90" length="8.00" width="3.50" shape="542.38,895.09 550.37,894.30"/>
        <lane id=":7597542268_5_1" index="1" speed="13.90" length="8.00" width="3.50" shape="542.75,898.67 550.71,897.88"/>
        <lane id=":7597542268_5_2" index="2" speed="13.90" length="8.00" width="3.50" shape="543.12,902.25 551.05,901.47"/>
    </edge>
    <edge id=":7597542269_0" function="internal">
        <lane id=":7597542269_0_0" index="0" speed="13.90" length="9.15" width="3.50" shape="560.40,902.41 560.30,898.46 560.51,895.62 561.03,893.88 561.86,893.24"/>
        <lane id=":7597542269_0_1" index="1" speed="13.90" length="9.15" width="3.50" shape="556.21,892.24 556.69,894.43 557.85,895.92 559.67,896.73 562.17,896.83"/>
    </edge>
    <edge id=":7597542269_2" function="internal">
        <lane id=":7597542269_2_0" index="0" speed="13.90" length="11.20" width="3.50" shape="556.21,892.24 556.95,895.37 558.31,897.32 559.67,899.27 560.44,902.41"/>
    </edge>
    <edge id=":7597542269_3" function="internal">
        <lane id=":7597542269_3_0" index="0" speed="13.90" length="8.00" width="3.50" shape="553.86,893.97 561.86,893.24"/>
        <lane id=":7597542269_3_1" index="1" speed="13.90" length="8.00" width="3.50" shape="554.20,897.55 562.17,896.83"/>
        <lane id=":7597542269_3_2" index="2" speed="13.90" length="8.00" width="3.50" shape="554.54,901.14 562.48,900.42"/>
    </edge>
    <edge id=":7597542269_6" function="internal">
        <lane id=":7597542269_6_0" index="0" speed="13.90" length="3.18" width="3.50" shape="554.54,901.14 555.51,901.16 556.21,901.42 556.66,901.93 556.85,902.69"/>
    </edge>
    <edge id=":7597542284_0" function="internal">
        <lane id=":7597542284_0_0" index="0" speed="13.90" length="9.73" width="3.50" shape="560.05,1094.26 559.41,1084.56"/>
    </edge>
    <edge id=":7597542284_1" function="internal">
        <lane id=":7597542284_1_0" index="0" speed="13.90" length="2.77" width="3.50" shape="560.05,1094.26 560.94,1092.90 561.84,1092.45 561.97,1092.51"/>
    </edge>
    <edge id=":7597542284_6" function="internal">
        <lane id=":7597542284_6_0" index="0" speed="13.90" length="2.49" width="3.50" shape="561.97,1092.51 562.75,1092.89 563.66,1094.23"/>
    </edge>
    <edge id=":7597542284_2" function="internal">
        <lane id=":7597542284_2_0" index="0" speed="13.90" length="11.03" width="3.50" shape="570.31,1084.12 569.69,1086.88 569.89,1088.85 570.44,1090.88 570.84,1093.78"/>
        <lane id=":7597542284_2_1" index="1" speed="13.90" length="11.03" width="3.50" shape="566.92,1082.93 566.15,1086.11 566.29,1088.39 566.83,1090.73 567.25,1094.08"/>
        <lane id=":7597542284_2_2" index="2" speed="13.90" length="11.03" width="3.50" shape="566.92,1082.93 565.55,1086.21 564.45,1088.46 563.78,1090.77 563.66,1094.23"/>
    </edge>
    <edge id=":7597542284_5" function="internal">
        <lane id=":7597542284_5_0" index="0" speed="13.90" length="10.36" width="3.50" shape="566.92,1082.93 565.43,1086.44 564.27,1087.63 563.43,1086.51 562.90,1083.07"/>
    </edge>
    <edge id=":7597551588_0" function="internal">
        <lane id=":7597551588_0_0" index="0" speed="13.90" length="4.33" shape="533.16,695.78 537.49,695.90"/>
    </edge>
    <edge id=":7597551588_1" function="internal">
        <lane id=":7597551588_1_0" index="0" speed="13.90" length="3.19" width="3.50" shape="536.78,695.88 537.72,694.15 538.76,693.51"/>
    </edge>
    <edge id=":7597551588_4" function="internal">
        <lane id=":7597551588_4_0" index="0" speed="13.90" length="3.19" width="3.50" shape="538.76,693.51 539.90,693.96 541.13,695.50"/>
    </edge>
    <edge id=":7597551588_2" function="internal">
        <lane id=":7597551588_2_0" index="0" speed="13.90" length="2.16" width="3.50" shape="540.78,695.63 544.71,695.14"/>
        <lane id=":7597551588_2_1" index="1" speed="13.90" length="2.16" width="3.50" shape="540.78,695.63 541.13,695.50"/>
    </edge>
    <edge id=":7600328554_0" function="internal">
        <lane id=":7600328554_0_0" index="0" speed="13.90" length="0.17" width="3.50" shape="562.19,924.83 562.20,925.08"/>
        <lane id=":7600328554_0_1" index="1" speed="13.90" length="0.17" width="3.50" shape="558.60,925.16 558.60,925.20"/>
    </edge>
    <edge id=":7600328555_0" function="internal">
        <lane id=":7600328555_0_0" index="0" speed="13.90" length="0.30" width="3.50" shape="576.93,913.69 576.63,913.71"/>
        <lane id=":7600328555_0_1" index="1" speed="13.90" length="0.30" width="3.50" shape="576.61,910.10 576.31,910.13"/>
    </edge>
    <edge id=":7600328558_0" function="internal">
        <lane id=":7600328558_0_0" index="0" speed="13.90" length="0.30" width="3.50" shape="544.06,883.56 544.04,883.26"/>
        <lane id=":7600328558_0_1" index="1" speed="13.90" length="0.30" width="3.50" shape="547.65,883.37 547.63,883.07"/>
    </edge>
    <edge id=":7600328559_0" function="internal">
        <lane id=":7600328559_0_0" index="0" speed="13.90" length="2.64" width="3.50" shape="529.33,898.22 531.19,896.24"/>
        <lane id=":7600328559_0_1" index="1" speed="13.90" length="2.64" width="3.50" shape="529.80,901.79 531.56,899.82"/>
        <lane id=":7600328559_0_2" index="2" speed="13.90" length="2.64" width="3.50" shape="530.27,905.36 531.93,903.40"/>
    </edge>
    <edge id=":7636143640_0" function="internal">
        <lane id=":7636143640_0_0" index="0" speed="13.90" length="1.59" shape="382.13,931.77 380.55,931.93"/>
    </edge>
    <edge id=":7636143640_1" function="internal">
        <lane id=":7636143640_1_0" index="0" speed="13.90" length="3.68" shape="382.13,931.77 381.90,930.75 381.43,930.02 380.73,929.58 379.79,929.42"/>
    </edge>
    <edge id=":7636143640_2" function="internal">
        <lane id=":7636143640_2_0" index="0" speed="13.90" length="6.38" shape="385.79,929.30 383.39,929.67 381.71,930.23 380.77,930.98 380.55,931.93"/>
    </edge>
    <edge id=":7636143640_3" function="internal">
        <lane id=":7636143640_3_0" index="0" speed="13.90" length="7.04" shape="385.44,925.72 383.62,926.44 382.62,927.71 381.63,928.91 379.79,929.42"/>
    </edge>
    <edge id=":7636143642_0" function="internal">
        <lane id=":7636143642_0_0" index="0" speed="13.90" length="46.06" width="3.50" shape="379.59,929.42 371.00,929.77 356.60,930.68 342.21,931.70 333.63,932.40"/>
    </edge>
    <edge id=":7636143642_1" function="internal">
        <lane id=":7636143642_1_0" index="0" speed="13.90" length="48.22" shape="332.49,921.66 380.63,918.78"/>
    </edge>
    <edge id=":7636143642_2" function="internal">
        <lane id=":7636143642_2_0" index="0" speed="13.90" length="5.26" width="3.50" shape="333.25,928.82 334.69,929.57 335.23,930.42 334.88,931.36 333.63,932.40"/>
    </edge>
    <edge id=":Custom47_0" function="internal">
        <lane id=":Custom47_0_0" index="0" speed="13.90" length="5.26" width="3.50" shape="161.63,952.25 160.18,951.52 159.61,950.69 159.95,949.74 161.17,948.67"/>
    </edge>
    <edge id=":Custom49_0" function="internal">
        <lane id=":Custom49_0_0" index="0" speed="13.90" length="5.26" width="3.50" shape="1020.70,872.94 1022.12,873.72 1022.64,874.58 1022.27,875.51 1021.00,876.52"/>
    </edge>
    <edge id=":Custom54_0" function="internal">
        <lane id=":Custom54_0_0" index="0" speed="13.90" length="5.26" width="3.50" shape="587.20,1499.05 586.39,1500.46 585.53,1500.97 584.60,1500.58 583.60,1499.30"/>
    </edge>
    <edge id=":Custom56_0" function="internal">
        <lane id=":Custom56_0_0" index="0" speed="13.90" length="5.26" width="3.50" shape="444.21,0.86 444.88,-0.61 445.70,-1.21 446.66,-0.91 447.77,0.28"/>
    </edge>

    <edge id="-449519845_1" from="2342987489" to="Custom56" priority="-1" shape="534.48,675.26 524.76,536.82 519.90,495.63 518.54,482.72 517.09,467.72 513.22,430.98 511.35,416.45 506.60,369.95 495.42,298.71 479.74,203.68 478.84,198.10 477.13,187.92 475.11,175.91 445.99,0.57">
        <lane id="-449519845_1_0" index="0" speed="13.90" length="688.68" width="3.50" shape="533.24,683.25 522.97,536.99 518.11,495.83 516.75,482.90 515.30,467.90 511.43,431.19 509.56,416.66 504.81,370.18 493.64,299.00 477.96,203.97 477.06,198.39 475.35,188.22 473.33,176.21 444.21,0.86"/>
    </edge>
    <edge id="-61646864_1" from="275069377" to="7597542284" priority="-1" shape="575.40,1327.13 575.03,1315.01 573.41,1292.89 572.17,1276.15 565.79,1171.36 564.83,1153.34 563.00,1118.81 561.86,1094.33">
        <lane id="-61646864_1_0" index="0" speed="13.90" length="240.83" width="3.50" shape="573.83,1334.69 573.23,1315.10 571.61,1293.02 570.37,1276.27 563.99,1171.46 563.03,1153.44 561.20,1118.90 560.05,1094.26"/>
    </edge>
    <edge id="-61646864_2" from="Custom54" to="275069377" priority="-1" shape="585.40,1499.17 578.00,1393.07 576.38,1369.91 574.54,1346.08 574.54,1345.58 575.26,1334.78">
        <lane id="-61646864_2_0" index="0" speed="13.90" length="165.05" width="3.50" shape="583.60,1499.30 576.20,1393.20 574.58,1370.04 572.75,1346.22 572.74,1345.52 573.46,1334.66"/>
    </edge>
    <edge id="-691167146" from="7636143642" to="Custom47" priority="-1" shape="333.44,930.61 272.07,937.14 216.63,943.69 205.23,945.29 205.13,945.31 180.42,948.02 161.40,950.46">
        <lane id="-691167146_0" index="0" speed="13.90" length="173.15" width="3.50" shape="333.63,932.40 272.27,938.93 216.86,945.48 205.48,947.07 180.63,949.81 161.63,952.25"/>
    </edge>
    <edge id="-821351686" from="7595860639" to="Custom49" priority="-1" shape="892.69,885.43 899.28,884.88 960.34,879.78 1020.85,874.73">
        <lane id="-821351686_0" index="0" speed="13.90" length="128.61" width="3.50" shape="892.54,883.64 899.13,883.09 960.19,877.99 1020.70,872.94"/>
    </edge>
    <edge id="-821351687" from="7595860639" to="275070458" priority="-1" shape="888.57,881.77 888.20,871.05">
        <lane id="-821351687_0" index="0" speed="13.90" length="18.56" width="3.50" shape="887.05,889.82 886.41,871.28"/>
    </edge>
    <edge id="25229278_1" from="Custom51" to="275069375" priority="-1" shape="0.00,1318.77 131.19,1339.54 163.99,1344.81 164.19,1344.83 170.05,1345.20 170.24,1345.20 170.44,1345.18 175.53,1344.50 195.25,1344.03 262.19,1342.45 270.42,1342.53 270.55,1342.53 317.77,1340.02 335.15,1339.29 357.48,1339.12 400.46,1338.31">