<?xml version='1.0' encoding='UTF-8'?>
<nodes>
  <node id="2342987489" x="-108.539248" y="-321.623821" shape="-101.836664,-326.104375 -101.556446,-322.114202 -101.548375,-321.981161 -101.345318,-318.008643 -115.327065,-317.293962 -118.374868,-318.929274 -118.654646,-322.919478 -115.802268,-325.123613 -101.836664,-326.104375 -101.836664,-326.104375"/>
  <node id="275069375" x="-242.367993" y="335.605286" shape="-240.737687,331.440901 -237.968109,335.689715 -238.782122,339.450912 -239.389137,339.465768 -246.329784,337.679946 -246.404795,333.680649 -244.721317,331.802410 -240.737687,331.440901 -240.737687,331.440901"/>
  <node id="275069377" x="-67.777007" y="330.393493" shape="-60.899859,326.185781 -60.780143,330.183990 -60.792441,330.858075 -61.057916,334.849256 -75.027048,333.920092 -74.893587,326.604788 -60.899859,326.185781 -60.899859,326.185781"/>
  <node id="275070420" x="-266.207039" y="-80.184057" shape="-266.993828,-87.139699 -262.937257,-85.917383 -261.547232,-75.509798 -265.420250,-73.228415 -269.394902,-72.778821 -270.968481,-86.690106 -266.993828,-87.139699 -266.993828,-87.139699"/>
  <node id="275070421" x="-189.675129" y="-90.872182" shape="-189.599398,-97.942844 -187.768046,-84.063141 -188.759453,-83.932331 -189.855542,-85.530838 -191.470906,-95.905837 -190.590805,-97.812033 -189.599398,-97.942844 -189.599398,-97.942844"/>
  <node id="275070434" x="198.883746" y="322.424871" shape="202.836253,320.332578 202.929084,324.331501 200.952565,326.389715 196.953162,326.458833 194.954367,324.560282 194.817790,320.562614 198.815458,320.426037 198.837330,320.425410 202.836253,320.332578 202.836253,320.332578"/>
  <node id="275070437" x="249.267688" y="317.67164"/>
  <node id="275070445" x="97.491436" y="-231.304649" shape="99.240213,-235.420688 99.487607,-231.428346 99.489438,-231.394032 99.668203,-227.398029 95.672200,-227.219263 93.560477,-229.172148 93.426860,-233.169915 95.247871,-235.173294 99.240213,-235.420688 99.240213,-235.420688"/>
  <node id="275070449" x="263.504108" y="268.628747" shape="265.296562,264.531539 267.369501,266.379584 267.622675,270.371564 261.501529,272.627457 259.103593,269.425910 261.301814,264.736460 265.296562,264.531539 265.296562,264.531539"/>
  <node id="275070456" x="104.025538" y="-122.324042" shape="107.529543,-127.917293 108.488126,-117.461140 100.623299,-116.668313 99.475702,-127.105411 103.451739,-127.542591 103.546246,-127.552118 107.529543,-127.917293 107.529543,-127.917293"/>
  <node id="275070458" x="241.232262" y="-134.851921" shape="240.573030,-140.060367 245.077919,-137.132022 245.366228,-133.142426 244.866197,-130.973195 241.891494,-129.643475 237.923154,-129.141203 236.604690,-139.558095 240.573030,-140.060367 240.573030,-140.060367"/>
  <node id="275070459" x="299.488151" y="-138.964033" shape="300.302835,-141.046409 300.665242,-137.062860 299.669355,-136.972259 299.628403,-136.968957 298.630865,-136.898831 298.350360,-140.888983 300.302835,-141.046409 300.302835,-141.046409"/>
  <node id="275070468" x="255.151487" y="98.659955" shape="257.019482,94.596632 258.959727,96.315321 259.312138,100.299767 257.327247,102.567137 253.331197,102.744872 253.153462,98.748822 253.152559,98.725421 253.021626,94.727565 257.019482,94.596632 257.019482,94.596632"/>
  <node id="275070472" x="244.175596" y="-63.82645" shape="245.969916,-67.922841 248.075329,-66.015533 248.266702,-62.020113 246.638704,-60.093743 242.667296,-59.616340 242.189892,-63.587748 242.178176,-63.724900 241.975075,-67.719740 245.969916,-67.922841 245.969916,-67.922841"/>
  <node id="275070477" x="258.389029" y="171.450242" shape="260.209319,167.365325 262.318710,169.315386 262.454722,173.313073 260.647288,175.310328 256.655916,175.572901 256.393343,171.581529 256.391004,171.539109 256.213269,167.543060 260.209319,167.365325 260.209319,167.365325"/>
  <node id="275070484" x="251.340763" y="16.443439" shape="253.127717,12.343830 255.266244,14.300870 255.410107,18.298282 253.515724,20.351065 249.519639,20.527984 249.133248,12.554110 253.127717,12.343830 253.127717,12.343830"/>
  <node id="3012253374" x="-89.711203" y="30.300806"/>
  <node id="5281436539" x="-105.605966" y="-220.111693" shape="-102.403330,-224.353523 -102.115066,-220.363924 -102.109498,-220.268898 -101.929836,-216.272935 -108.922771,-215.958525 -110.052167,-220.592624 -109.385129,-223.849062 -102.403330,-224.353523 -102.403330,-224.353523"/>
  <node id="5440424833" x="-183.30833" y="-317.268923" shape="-179.423507,-319.484357 -179.205089,-315.490325 -181.365126,-313.420548 -185.353848,-313.120384 -187.223829,-315.108167 -187.386234,-319.104869 -179.423507,-319.484357 -179.423507,-319.484357"/>
  <node id="592651813" x="237.16533" y="321.534894" shape="240.367699,318.413223 241.584088,322.223787 239.349221,325.437536 235.353551,325.623593 233.213270,323.628030 233.119585,319.629127 240.367699,318.413223 240.367699,318.413223"/>
  <node id="7108818105" x="242.621276" y="-94.39878"/>
  <node id="7595860638" x="33.062136" y="-97.949135"/>
  <node id="7595860639" x="241.911983" y="-114.865454" shape="245.274003,-118.982106 245.606361,-118.686654 246.189771,-111.711008 244.047959,-110.936382 240.050311,-110.799230 238.187398,-111.073691 237.659361,-118.053746 238.278048,-118.744180 245.274003,-118.982106 245.274003,-118.982106"/>
  <node id="7597542266" x="-87.541236" y="-87.246921" shape="-84.310885,-91.467683 -83.875278,-91.095395 -83.240188,-84.124265 -83.697047,-83.576470 -90.668914,-82.949523 -91.274437,-83.463640 -91.786594,-90.444879 -91.295839,-91.008963 -84.310885,-91.467683 -84.310885,-91.467683"/>
  <node id="7597542267" x="-98.807492" y="-86.420407" shape="-95.632780,-90.683176 -95.074291,-90.203688 -94.562134,-83.222449 -95.115836,-82.596577 -102.107440,-82.253833 -102.444697,-82.544747 -103.131669,-89.510956 -102.611116,-90.132879 -95.632780,-90.683176 -95.632780,-90.683176"/>
  <node id="7597542268" x="-100.053564" y="-102.221887" shape="-96.567810,-107.826530 -95.575149,-97.373558 -103.497269,-96.591310 -104.568144,-107.036559 -100.589001,-107.444512 -100.549895,-107.448373 -96.567810,-107.826530 -96.567810,-107.826530"/>
  <node id="7597542269" x="-88.596137" y="-103.309937" shape="-85.059096,-108.882355 -84.162404,-98.420713 -92.081891,-97.705294 -93.074552,-108.158266 -89.092468,-108.536423 -89.044483,-108.540758 -85.059096,-108.882355 -85.059096,-108.882355"/>
  <node id="7597542284" x="-81.492908" y="92.28972" shape="-81.568420,81.695179 -74.945098,83.960483 -74.500405,91.965838 -74.454136,92.964767 -78.181247,93.422372 -84.712433,93.662550 -88.439142,93.612531 -88.485411,92.613602 -88.634803,84.463908 -82.195754,81.718249 -81.568420,81.695179 -81.568420,81.695179"/>
  <node id="7597551588" x="-108.336191" y="-317.651302" shape="-101.396366,-319.007339 -100.490781,-305.678223 -108.425611,-304.709769 -115.240523,-304.888330 -115.324441,-306.049761 -115.378113,-318.292658 -111.699149,-318.621103 -101.396366,-319.007339 -101.396366,-319.007339"/>
  <node id="7600328554" x="-86.49643" y="-75.628315"/>
  <node id="7600328555" x="-70.183025" y="-88.828305"/>
  <node id="7600328558" x="-100.848935" y="-117.322976"/>
  <node id="7600328559" x="-116.210709" y="-100.565414" shape="-117.126385,-107.505265 -115.751361,-105.890027 -114.680486,-95.444777 -115.295033,-93.625563 -116.286440,-93.494752 -118.117792,-107.374455 -117.126385,-107.505265 -117.126385,-107.505265"/>
  <node id="7636143640" x="-265.16259" y="-72.825987" shape="-263.744588,-77.067363 -261.520181,-76.696756 -260.842570,-69.729630 -262.620658,-69.065907 -266.600284,-68.662699 -269.023413,-69.173037 -269.295712,-76.167739 -267.704890,-76.505214 -263.744588,-77.067363 -263.744588,-77.067363"/>
  <node id="7636143642" x="-312.732783" y="-73.60251" shape="-266.993828,-87.139700 -265.298739,-76.323338 -265.026441,-69.328637 -312.986712,-66.536003 -314.467633,-80.457457 -277.452712,-85.956641 -266.993828,-87.139700 -266.993828,-87.139700"/>
  <node id="Custom35" x="-60.713927" y="-224.084422"/>
  <node id="Custom36" x="405.460504" y="85.365613"/>
  <node id="Custom37" x="496.10655999999994" y="161.029863"/>
  <node id="Custom38" x="421.618506" y="9.232437999999998"/>
  <node id="Custom39" x="85.164416" y="364.597842"/>
  <node id="Custom40" x="242.577286" y="438.578425"/>
  <node id="Custom41" x="241.533344" y="-195.358636"/>
  <node id="Custom42" x="291.513443" y="-238.663244"/>
  <node id="Custom43" x="-126.462706" y="-186.217353"/>
  <node id="Custom44" x="-135.57434899999998" y="-308.867337"/>
  <node id="Custom45" x="32.076152" y="-324.630282"/>
  <node id="Custom46" x="31.173736" y="-346.155979"/>
  <node id="Custom47" x="-485.835463" y="-53.638968"/>
  <node id="Custom48" x="498.455593" y="-157.064481"/>
  <node id="Custom49" x="374.05579" y="-125.900759"/>
  <node id="Custom50" x="377.440606" y="-70.20959"/>
  <node id="Custom51" x="-646.480383" y="316.165921"/>
  <node id="Custom52" x="81.447961" y="-538.22348"/>
  <node id="Custom53" x="517.890359" y="248.09936299999998"/>
  <node id="Custom54" x="-57.903524000000004" y="498.298693"/>
  <node id="Custom55" x="-198.133239" y="-316.666517"/>
  <node id="Custom56" x="-197.354297" y="-1000.630339"/>
</nodes>
